*Heading
** Job name: Job-1 Model name: Model-1
** Generated by: Abaqus/CAE Student Edition 2016
*Preprint, echo=NO, model=NO, history=NO, contact=NO
**
** PARTS
**
*Part, name=Part-1
*Node
      1,  0.980784833,  0.195092678,           0.
      2,  0.831465602,  0.555576205,           0.
      3,           1.,           0.,           0.
      4,  0.707099974,  0.707113564,           0.
      5,  0.707099974,   1.66250002,           0.
      6,           1.,   1.66250002,           0.
      7,           1.,   1.26250005,           0.
      8,    1.2775929,   0.57249999,           0.
      9,   1.36905622,  0.292719901,           0.
     10,   1.39999998,           0.,           0.
     11,  0.923877716,  0.382687867,           0.
     12,  0.707099974,  0.945960164,           0.
     13,  0.707099974,   1.18480682,           0.
     14,  0.707099974,   1.42365336,           0.
     15,           1.,   1.46249998,           0.
     16,   1.09253097,   1.03250003,           0.
     17,   1.18506193,   0.80250001,           0.
     18,   1.20000005,           0.,           0.
     19,   1.05303335,  0.756177902,           0.
     20,   1.08354044,  0.514643312,           0.
** ... 311 like lines cut
*Element, type=C3D20R
 1,   9,  22,  18,  10,  34,  47,  43,  35, 104, 103, 102, 101, 105, 106, 107,
    108, 110, 109, 111, 112
 2,  20,  11,   1,  22,  45,  36,  26,  47, 116, 115, 114, 113, 117, 118, 119,
    120, 122, 121, 123, 109
 3,  17,  19,  20,   8,  42,  44,  45,  33, 127, 126, 125, 124, 128, 129, 130,
    131, 133, 132, 122, 134
 4,   2,  11,  20,  24,  27,  36,  45,  49, 137, 116, 136, 135, 138, 117, 139,
    140, 141, 121, 122, 142
 5,  19,  17,  16,  25,  44,  42,  41,  50, 127, 145, 144, 143, 128, 146, 147,
    148, 132, 133, 149, 150
 6,   6,   5,  14,  15,  31,  30,  39,  40, 154, 153, 152, 151, 155, 156, 157,
    158, 160, 159, 161, 162
 7,   7,  13,  12,  21,  32,  38,  37,  46, 166, 165, 164, 163, 167, 168, 169,
    170, 172, 171, 173, 174
 8,  23,  24,  20,  19,  48,  49,  45,  44, 176, 136, 126, 175, 177, 139, 129,
    178, 179, 142, 122, 132
 9,  25,  16,   7,  21,  50,  41,  32,  46, 144, 181, 163, 180, 147, 182, 170,
    183, 150, 149, 172, 174
10,  15,  14,  13,   7,  40,  39,  38,  32, 152, 185, 166, 184, 157, 186, 167,
    187, 162, 161, 171, 172
** ... 70 like lines cut
*Nset, nset=Set-1, generate
   1,  331,    1
*Elset, elset=Set-1, generate
  1,  45,   1
** Section: Section-1
*Solid Section, elset=Set-1, material=Material-1
,
*End Part
**  
**
** ASSEMBLY
**
*Assembly, name=Assembly
**  
*Instance, name=Part-1-1, part=Part-1
          0.,           0.,           0.
          0.,           0.,           0.,           1.,           0.,           0.,          90.
*End Instance
**  
*Nset, nset=Set-1, instance=Part-1-1
   5,   6,  30,  31,  55,  56,  80,  81, 154, 155, 159, 160, 236, 240, 241, 300
 304, 305
*Elset, elset=Set-1, instance=Part-1-1, generate
  6,  36,  15
*Nset, nset=Set-2, instance=Part-1-1
   3,  10,  18,  28,  35,  43,  53,  60,  68,  78,  85,  93, 102, 107, 111, 112
 188, 191, 192, 206, 210, 211, 260, 261, 270, 274, 275, 324, 325
*Elset, elset=Set-2, instance=Part-1-1
  1, 11, 16, 26, 31, 41
*Nset, nset=Set-3, instance=Part-1-1
   1,   2,   3,   4,   5,   6,   7,   8,   9,  10,  11,  12,  13,  14,  15,  16
  17,  18,  19,  20,  21,  22,  23,  24,  25, 101, 102, 103, 104, 113, 114, 115
 116, 124, 125, 126, 127, 135, 136, 137, 143, 144, 145, 151, 152, 153, 154, 163
 164, 165, 166, 175, 176, 180, 181, 184, 185, 188, 189, 193, 195, 196, 197, 202
*Elset, elset=Set-3, instance=Part-1-1, generate
  1,  15,   1
*Nset, nset=Set-4, instance=Part-1-1
  76,  77,  78,  79,  80,  81,  82,  83,  84,  85,  86,  87,  88,  89,  90,  91
  92,  93,  94,  95,  96,  97,  98,  99, 100, 268, 269, 270, 271, 276, 277, 278
 279, 283, 284, 285, 286, 290, 291, 292, 295, 296, 297, 300, 301, 302, 303, 308
 309, 310, 311, 316, 317, 319, 320, 321, 322, 323, 324, 326, 327, 328, 329, 331
*Elset, elset=Set-4, instance=Part-1-1, generate
 31,  45,   1
*Nset, nset=Set-5, instance=Part-1-1
   1,   2,   3,   4,   5,   6,   7,   8,   9,  10,  11,  12,  13,  14,  15,  16
  17,  18,  19,  20,  21,  22,  23,  24,  25, 101, 102, 103, 104, 113, 114, 115
 116, 124, 125, 126, 127, 135, 136, 137, 143, 144, 145, 151, 152, 153, 154, 163
 164, 165, 166, 175, 176, 180, 181, 184, 185, 188, 189, 193, 195, 196, 197, 202
*Elset, elset=Set-5, instance=Part-1-1, generate
  1,  15,   1
*Nset, nset=Set-6, instance=Part-1-1
   3,  10,  18,  28,  35,  43,  53,  60,  68,  78,  85,  93, 102, 107, 111, 112
 188, 191, 192, 206, 210, 211, 260, 261, 270, 274, 275, 324, 325
*Elset, elset=Set-6, instance=Part-1-1
  1, 11, 16, 26, 31, 41
*Nset, nset=Set-7, instance=Part-1-1
   5,   6,  30,  31,  55,  56,  80,  81, 154, 155, 159, 160, 236, 240, 241, 300
 304, 305
*Elset, elset=Set-7, instance=Part-1-1, generate
  6,  36,  15
*Nset, nset=Set-8, instance=Part-1-1, generate
   1,  331,    1
*Elset, elset=Set-8, instance=Part-1-1, generate
  1,  45,   1
*Nset, nset="_T-Datum csys-2", internal
Set-4, 
Set-5, 
Set-6, 
Set-7, 
*Transform, nset="_T-Datum csys-2", type=C
          0.,           0.,           0.,           0.,           0.,           1.
*End Assembly
** 
** MATERIALS
** 
*Material, name=Material-1
*Elastic
 2.1e+11, 0.3
*Expansion
 0.00023,
** ----------------------------------------------------------------
** 
** STEP: Step-1
** 
*Step, name=Step-1, nlgeom=NO, perturbation
*Static
** 
** BOUNDARY CONDITIONS
** 
** Name: BC-1 Type: Displacement/Rotation
*Boundary
Set-4, 2, 2
** Name: BC-2 Type: Displacement/Rotation
*Boundary
Set-5, 2, 2
** Name: BC-3 Type: Displacement/Rotation
*Boundary
Set-6, 3, 3
** Name: BC-4 Type: Displacement/Rotation
*Boundary
Set-7, 3, 3
** 
** PREDEFINED FIELDS
** 
** Name: Predefined Field-1   Type: Temperature Using Field: AnalyticalField-1
*Temperature
Part-1-1.1, 1.17588
Part-1-1.2, 1.38704
Part-1-1.3, 1.
Part-1-1.4, 1.41421
Part-1-1.5, 2.3696
Part-1-1.6, 2.6625
Part-1-1.7, 2.2625
Part-1-1.8, 1.85009
Part-1-1.9, 1.66178
Part-1-1.10, 1.4
Part-1-1.11, 1.30657
Part-1-1.12, 1.65306
Part-1-1.13, 1.89191
Part-1-1.14, 2.13075
Part-1-1.15, 2.4625
Part-1-1.16, 2.12503
Part-1-1.17, 1.98756
Part-1-1.18, 1.2
Part-1-1.19, 1.80921
Part-1-1.20, 1.59818
** ... 311 like lines cut
** 
** OUTPUT REQUESTS
** 
** 
** FIELD OUTPUT: F-Output-1
** 
*Output, field, variable=PRESELECT
** 
** HISTORY OUTPUT: H-Output-1
** 
*Output, history, variable=PRESELECT
*End Step
