*Heading
** Job name: Job-1 Model name: Model-1
** Generated by: Abaqus/CAE Student Edition 2016
*Preprint, echo=NO, model=NO, history=NO, contact=NO
**
** PARTS
**
*Part, name=Part-2
*Node
      1,  0.707099974,  0.707113564,           0.
      2,  0.707099974,   1.78999996,           0.
      3,           1.,   1.78999996,           0.
      4,           1.,   1.38999999,           0.
      5,   1.20830059,  0.707113564,           0.
      6,   1.36871862,  0.294294864,           0.
      7,   1.32994533,  0.437316298,           0.
      8,   1.39999998,           0.,           0.
      9,           1.,           0.,           0.
     10,  0.951055348,  0.309020638,           0.
     11,  0.891003907,  0.453995615,           0.
     12,  0.707099974,  0.861811638,           0.
     13,  0.707099974,   1.01650965,           0.
     14,  0.707099974,   1.17120779,           0.
     15,  0.707099974,    1.3259058,           0.
     16,  0.707099974,   1.48060393,           0.
     17,  0.707099974,   1.63530195,           0.
     18,  0.853550017,   1.78999996,           0.
     19,           1.,   1.65666664,           0.
     20,           1.,   1.52333331,           0.
** ... 552 like lines cut
*Element, type=C3D8R
  1,  21,  36,  37,  22,  73,  88,  89,  74
  2,  34,   4,  20,  33,  86,  56,  72,  85
  3,  23,  38,  35,  24,  75,  90,  87,  76
  4,  41,   5,  24,  35,  93,  57,  76,  87
  5,  39,  26,   5,  41,  91,  78,  57,  93
  6,  26,  39,  40,   7,  78,  91,  92,  59
  7,  52,  46,  49,  40, 104,  98, 101,  92
  8,   8,  25,  32,  28,  60,  77,  84,  80
  9,  45,  44,  39,  41,  97,  96,  91,  93
 10,   4,  34,  36,  21,  56,  86,  88,  73
 11,  14,  48,  34,  15,  66, 100,  86,  67
 12,  34,  33,  16,  15,  86,  85,  68,  67
 13,   3,  18,  31,  19,  55,  70,  83,  71
 14,  31,  18,   2,  17,  83,  70,  54,  69
 15,  33,  31,  17,  16,  85,  83,  69,  68
 16,  19,  31,  33,  20,  71,  83,  85,  72
 17,  34,  48,  37,  36,  86, 100,  89,  88
 18,  48,  42,  38,  37, 100,  94,  90,  89
 19,  42,  43,  51,  38,  94,  95, 103,  90
 20,  27,  50,  29,   9,  79, 102,  81,  61
** ... 340 like lines cut
*Nset, nset=Set-2, generate
   1,  572,    1
*Elset, elset=Set-2, generate
   1,  360,    1
** Section: Section-1
*Solid Section, elset=Set-2, material=Material-1
,
*End Part
**  
**
** ASSEMBLY
**
*Assembly, name=Assembly
**  
*Instance, name=Part-2-1, part=Part-2
          0.,           0.,           0.
          0.,           0.,           0.,           1.,           0.,           0.,          90.
*End Instance
**  
*Nset, nset=Set-9, instance=Part-2-1, generate
  1,  52,   1
*Elset, elset=Set-9, instance=Part-2-1, generate
  1,  36,   1
*Nset, nset=Set-10, instance=Part-2-1, generate
 521,  572,    1
*Elset, elset=Set-10, instance=Part-2-1, generate
 325,  360,    1
*Nset, nset=Set-11, instance=Part-2-1
   2,   3,   8,   9,  18,  27,  28,  54,  55,  60,  61,  70,  79,  80, 106, 107
 112, 113, 122, 131, 132, 158, 159, 164, 165, 174, 183, 184, 210, 211, 216, 217
 226, 235, 236, 262, 263, 268, 269, 278, 287, 288, 314, 315, 320, 321, 330, 339
 340, 366, 367, 372, 373, 382, 391, 392, 418, 419, 424, 425, 434, 443, 444, 470
 471, 476, 477, 486, 495, 496, 522, 523, 528, 529, 538, 547, 548
*Elset, elset=Set-11, instance=Part-2-1
   8,  13,  14,  20,  21,  44,  49,  50,  56,  57,  80,  85,  86,  92,  93, 116
 121, 122, 128, 129, 152, 157, 158, 164, 165, 188, 193, 194, 200, 201, 224, 229
 230, 236, 237, 260, 265, 266, 272, 273, 296, 301, 302, 308, 309, 332, 337, 338
 344, 345
*Nset, nset=Set-12, instance=Part-2-1, generate
   1,  572,    1
*Elset, elset=Set-12, instance=Part-2-1, generate
   1,  360,    1
*Nset, nset="_T-Datum csys-3", internal
Set-9, 
Set-10, 
Set-11, 
*Transform, nset="_T-Datum csys-3", type=C
          0.,           0.,           0.,           0.,           0.,           1.
*End Assembly
** 
** MATERIALS
** 
*Material, name=Material-1
*Elastic
 2.1e+11, 0.3
*Expansion
 0.00023,
** ----------------------------------------------------------------
** 
** STEP: Step-1
** 
*Step, name=Step-1, nlgeom=NO, perturbation
*Static
** 
** BOUNDARY CONDITIONS
** 
** Name: BC-1 Type: Displacement/Rotation
*Boundary
Set-9, 2, 2
** Name: BC-2 Type: Displacement/Rotation
*Boundary
Set-10, 2, 2
** Name: BC-3 Type: Displacement/Rotation
*Boundary
Set-11, 3, 3
** 
** PREDEFINED FIELDS
** 
** Name: Predefined Field-1   Type: Temperature Using Field: AnalyticalField-1
*Temperature
Part-2-1.1, 1.41421
Part-2-1.2, 2.4971
Part-2-1.3, 2.79
Part-2-1.4, 2.39
Part-2-1.5, 1.91541
Part-2-1.6, 1.66301
Part-2-1.7, 1.76726
Part-2-1.8, 1.4
Part-2-1.9, 1.
Part-2-1.10, 1.26008
Part-2-1.11, 1.345
Part-2-1.12, 1.56891
Part-2-1.13, 1.72361
Part-2-1.14, 1.87831
Part-2-1.15, 2.03301
Part-2-1.16, 2.1877
Part-2-1.17, 2.3424
Part-2-1.18, 2.64355
Part-2-1.19, 2.65667
Part-2-1.20, 2.52333
** ... 552 like lines cut
** 
** OUTPUT REQUESTS
** 
** 
** FIELD OUTPUT: F-Output-1
** 
*Output, field, variable=PRESELECT
** 
** HISTORY OUTPUT: H-Output-1
** 
*Output, history, variable=PRESELECT
*End Step
