*Heading
** Job name: Job-1 Model name: Model-1
** Generated by: Abaqus/CAE Student Edition 2016
*Preprint, echo=NO, model=NO, history=NO, contact=NO
**
** PARTS
**
*Part, name=Part-2
*Node
      1,  0.707099974,  0.707113564,           0.
      2,  0.707099974,   1.78999996,           0.
      3,           1.,   1.78999996,           0.
      4,           1.,   1.38999999,           0.
      5,   1.20830059,  0.707113564,           0.
      6,   1.38775277,  0.184775889,           0.
      7,   1.29105723,  0.541452885,           0.
      8,   1.39999998,           0.,           0.
      9,           1.,           0.,           0.
     10,  0.980784833,  0.195092678,           0.
     11,  0.831465602,  0.555576205,           0.
     12,  0.707099974,  0.923690856,           0.
     13,  0.707099974,   1.14026809,           0.
     14,  0.707099974,   1.35684538,           0.
     15,  0.707099974,   1.57342267,           0.
     16,           1.,   1.59000003,           0.
     17,   1.05207515,   1.21927834,           0.
     18,    1.1041503,    1.0485568,           0.
     19,   1.15622544,  0.877835155,           0.
     20,    1.3512255,  0.366318941,           0.
** ... 580 like lines cut
*Element, type=C3D20R
 1,  18,  17,  23,  25,  53,  52,  58,  60, 179, 178, 177, 176, 180, 181, 182,
    183, 185, 184, 186, 187
 2,  16,   3,   2,  32,  51,  38,  37,  67, 191, 190, 189, 188, 192, 193, 194,
    195, 197, 196, 198, 199
 3,  13,  12,  26,  25,  48,  47,  61,  60, 203, 202, 201, 200, 204, 205, 206,
    207, 209, 208, 210, 187
 4,   1,  31,  26,  12,  36,  66,  61,  47, 213, 212, 202, 211, 214, 215, 205,
    216, 218, 217, 210, 208
 5,  24,  29,   7,   5,  59,  64,  42,  40, 222, 221, 220, 219, 223, 224, 225,
    226, 228, 227, 229, 230
 6,  27,  34,  22,  10,  62,  69,  57,  45, 234, 233, 232, 231, 235, 236, 237,
    238, 240, 239, 241, 242
 7,  27,  21,   8,   6,  62,  56,  43,  41, 246, 245, 244, 243, 247, 248, 249,
    250, 240, 251, 252, 253
 8,  10,   9,  21,  27,  45,  44,  56,  62, 255, 254, 246, 231, 256, 257, 247,
    238, 242, 258, 251, 240
 9,   6,  20,  28,  27,  41,  55,  63,  62, 261, 260, 259, 243, 262, 263, 264,
    250, 253, 265, 266, 240
10,  30,  23,  17,   4,  65,  58,  52,  39, 269, 178, 268, 267, 270, 181, 271,
    272, 273, 186, 184, 274
** ... 164 like lines cut
*Nset, nset=Set-2, generate
   1,  600,    1
*Elset, elset=Set-2, generate
  1,  92,   1
** Section: Section-1
*Solid Section, elset=Set-2, material=Material-1
,
*End Part
**  
**
** ASSEMBLY
**
*Assembly, name=Assembly
**  
*Instance, name=Part-2-1, part=Part-2
          0.,           0.,           0.
          0.,           0.,           0.,           1.,           0.,           0.,          90.
*End Instance
**  
*Nset, nset=Set-9, instance=Part-2-1
   1,   2,   3,   4,   5,   6,   7,   8,   9,  10,  11,  12,  13,  14,  15,  16
  17,  18,  19,  20,  21,  22,  23,  24,  25,  26,  27,  28,  29,  30,  31,  32
  33,  34,  35, 176, 177, 178, 179, 188, 189, 190, 191, 200, 201, 202, 203, 211
 212, 213, 219, 220, 221, 222, 231, 232, 233, 234, 243, 244, 245, 246, 254, 255
 259, 260, 261, 267, 268, 269, 275, 276, 277, 283, 284, 287, 288, 289, 294, 295
 296, 297, 304, 306, 307, 310, 311, 315, 317, 319, 321, 323
*Elset, elset=Set-9, instance=Part-2-1, generate
  1,  23,   1
*Nset, nset=Set-10, instance=Part-2-1
 141, 142, 143, 144, 145, 146, 147, 148, 149, 150, 151, 152, 153, 154, 155, 156
 157, 158, 159, 160, 161, 162, 163, 164, 165, 166, 167, 168, 169, 170, 171, 172
 173, 174, 175, 509, 510, 511, 512, 517, 518, 519, 520, 525, 526, 527, 528, 532
 533, 534, 537, 538, 539, 540, 545, 546, 547, 548, 553, 554, 555, 556, 560, 561
 563, 564, 565, 568, 569, 570, 573, 574, 575, 578, 579, 580, 581, 582, 584, 585
 586, 587, 590, 591, 592, 593, 594, 596, 597, 598, 599, 600
*Elset, elset=Set-10, instance=Part-2-1, generate
 70,  92,   1
*Nset, nset=Set-11, instance=Part-2-1
   2,   3,   8,   9,  21,  37,  38,  43,  44,  56,  72,  73,  78,  79,  91, 107
 108, 113, 114, 126, 142, 143, 148, 149, 161, 190, 193, 196, 198, 245, 248, 251
 252, 254, 257, 258, 334, 337, 339, 370, 373, 374, 377, 378, 426, 429, 431, 462
 465, 466, 469, 470, 518, 521, 523, 554, 557, 558, 561, 562
*Elset, elset=Set-11, instance=Part-2-1
  2,  7,  8, 25, 30, 31, 48, 53, 54, 71, 76, 77
*Nset, nset=Set-12, instance=Part-2-1, generate
   1,  600,    1
*Elset, elset=Set-12, instance=Part-2-1, generate
  1,  92,   1
*Nset, nset="_T-Datum csys-3", internal
Set-9, 
Set-10, 
Set-11, 
*Transform, nset="_T-Datum csys-3", type=C
          0.,           0.,           0.,           0.,           0.,           1.
*End Assembly
** 
** MATERIALS
** 
*Material, name=Material-1
*Elastic
 2.1e+11, 0.3
*Expansion
 0.00023,
** ----------------------------------------------------------------
** 
** STEP: Step-1
** 
*Step, name=Step-1, nlgeom=NO, perturbation
*Static
** 
** BOUNDARY CONDITIONS
** 
** Name: BC-1 Type: Displacement/Rotation
*Boundary
Set-9, 2, 2
** Name: BC-2 Type: Displacement/Rotation
*Boundary
Set-10, 2, 2
** Name: BC-3 Type: Displacement/Rotation
*Boundary
Set-11, 3, 3
** 
** PREDEFINED FIELDS
** 
** Name: Predefined Field-1   Type: Temperature Using Field: AnalyticalField-1
*Temperature
Part-2-1.1, 1.41421
Part-2-1.2, 2.4971
Part-2-1.3, 2.79
Part-2-1.4, 2.39
Part-2-1.5, 1.91541
Part-2-1.6, 1.57253
Part-2-1.7, 1.83251
Part-2-1.8, 1.4
Part-2-1.9, 1.
Part-2-1.10, 1.17588
Part-2-1.11, 1.38704
Part-2-1.12, 1.63079
Part-2-1.13, 1.84737
Part-2-1.14, 2.06395
Part-2-1.15, 2.28052
Part-2-1.16, 2.59
Part-2-1.17, 2.27135
Part-2-1.18, 2.15271
Part-2-1.19, 2.03406
Part-2-1.20, 1.71754
** ... 580 like lines cut
** 
** OUTPUT REQUESTS
** 
** 
** FIELD OUTPUT: F-Output-1
** 
*Output, field, variable=PRESELECT
** 
** HISTORY OUTPUT: H-Output-1
** 
*Output, history, variable=PRESELECT
*End Step
