*Heading
** Job name: Job-1 Model name: Model-1
** Generated by: Abaqus/CAE Student Edition 2016
*Preprint, echo=NO, model=NO, history=NO, contact=NO
**
** PARTS
**
*Part, name=Part-2
*Node
      1,  0.707099974,  0.707113564,           0.
      2,  0.707099974,   1.78999996,           0.
      3,           1.,   1.78999996,           0.
      4,           1.,   1.38999999,           0.
      5,   1.20830059,  0.707113564,           0.
      6,   1.37825191,   0.24580799,           0.
      7,   1.31368351,  0.483979076,           0.
      8,   1.39999998,           0.,           0.
      9,           1.,           0.,           0.
     10,  0.965924978,  0.258822143,           0.
     11,  0.866022229,  0.500005543,           0.
     12,  0.707099974,  0.977835178,           0.
     13,  0.707099974,   1.24855673,           0.
     14,  0.707099974,   1.51927841,           0.
     15,           1.,   1.59000003,           0.
     16,   1.06943357,   1.16237116,           0.
     17,   1.13886714,  0.934742391,           0.
     18,   1.20000005,           0.,           0.
     19,   1.14490926,  0.260035455,           0.
     20,  0.979808569,   0.71565938,           0.
** ... 551 like lines cut
*Element, type=C3D20R
 1,  17,  16,  23,  21,  41,  40,  47,  45, 172, 171, 170, 169, 173, 174, 175,
    176, 178, 177, 179, 180
 2,   3,   2,  14,  15,  27,  26,  38,  39, 184, 183, 182, 181, 185, 186, 187,
    188, 190, 189, 191, 192
 3,  12,   1,  20,  21,  36,  25,  44,  45, 196, 195, 194, 193, 197, 198, 199,
    200, 202, 201, 203, 180
 4,  22,  20,   1,  11,  46,  44,  25,  35, 206, 195, 205, 204, 207, 198, 208,
    209, 210, 203, 201, 211
 5,  22,  19,   6,   7,  46,  43,  30,  31, 215, 214, 213, 212, 216, 217, 218,
    219, 210, 220, 221, 222
 6,  19,  18,   8,   6,  43,  42,  32,  30, 225, 224, 223, 214, 226, 227, 228,
    217, 220, 229, 230, 221
 7,  10,   9,  18,  19,  34,  33,  42,  43, 233, 232, 225, 231, 234, 235, 226,
    236, 238, 237, 229, 220
 8,  19,  22,  11,  10,  43,  46,  35,  34, 215, 204, 239, 231, 216, 209, 240,
    236, 220, 210, 211, 238
 9,   4,  24,  23,  16,  28,  48,  47,  40, 243, 242, 171, 241, 244, 245, 174,
    246, 248, 247, 179, 177
10,  23,  24,  14,  13,  47,  48,  38,  37, 242, 251, 250, 249, 245, 252, 253,
    254, 179, 247, 191, 255
** ... 148 like lines cut
*Nset, nset=Set-2, generate
   1,  571,    1
*Elset, elset=Set-2, generate
  1,  84,   1
** Section: Section-1
*Solid Section, elset=Set-2, material=Material-1
,
*End Part
**  
**
** ASSEMBLY
**
*Assembly, name=Assembly
**  
*Instance, name=Part-2-1, part=Part-2
          0.,           0.,           0.
          0.,           0.,           0.,           1.,           0.,           0.,          90.
*End Instance
**  
*Nset, nset=Set-9, instance=Part-2-1
   1,   2,   3,   4,   5,   6,   7,   8,   9,  10,  11,  12,  13,  14,  15,  16
  17,  18,  19,  20,  21,  22,  23,  24, 169, 170, 171, 172, 181, 182, 183, 184
 193, 194, 195, 196, 204, 205, 206, 212, 213, 214, 215, 223, 224, 225, 231, 232
 233, 239, 241, 242, 243, 249, 250, 251, 256, 258, 259, 263, 265
*Elset, elset=Set-9, instance=Part-2-1, generate
  1,  14,   1
*Nset, nset=Set-10, instance=Part-2-1
 145, 146, 147, 148, 149, 150, 151, 152, 153, 154, 155, 156, 157, 158, 159, 160
 161, 162, 163, 164, 165, 166, 167, 168, 511, 512, 513, 514, 519, 520, 521, 522
 527, 528, 529, 530, 534, 535, 536, 539, 540, 541, 542, 546, 547, 548, 551, 552
 553, 556, 557, 558, 559, 562, 563, 564, 566, 567, 568, 570, 571
*Elset, elset=Set-10, instance=Part-2-1, generate
 71,  84,   1
*Nset, nset=Set-11, instance=Part-2-1
   2,   3,   8,   9,  18,  26,  27,  32,  33,  42,  50,  51,  56,  57,  66,  74
  75,  80,  81,  90,  98,  99, 104, 105, 114, 122, 123, 128, 129, 138, 146, 147
 152, 153, 162, 184, 185, 189, 190, 224, 227, 229, 230, 232, 235, 237, 275, 279
 280, 303, 305, 306, 308, 310, 336, 340, 341, 364, 366, 367, 369, 371, 397, 401
 402, 425, 427, 428, 430, 432, 458, 462, 463, 486, 488, 489, 491, 493, 519, 523
 524, 547, 549, 550, 552, 554
*Elset, elset=Set-11, instance=Part-2-1
  2,  6,  7, 16, 20, 21, 30, 34, 35, 44, 48, 49, 58, 62, 63, 72
 76, 77
*Nset, nset=Set-12, instance=Part-2-1, generate
   1,  571,    1
*Elset, elset=Set-12, instance=Part-2-1, generate
  1,  84,   1
*Nset, nset="_T-Datum csys-3", internal
Set-9, 
Set-10, 
Set-11, 
*Transform, nset="_T-Datum csys-3", type=C
          0.,           0.,           0.,           0.,           0.,           1.
*End Assembly
** 
** MATERIALS
** 
*Material, name=Material-1
*Elastic
 2.1e+11, 0.3
*Expansion
 0.00023,
** ----------------------------------------------------------------
** 
** STEP: Step-1
** 
*Step, name=Step-1, nlgeom=NO, perturbation
*Static
** 
** BOUNDARY CONDITIONS
** 
** Name: BC-1 Type: Displacement/Rotation
*Boundary
Set-9, 2, 2
** Name: BC-2 Type: Displacement/Rotation
*Boundary
Set-10, 2, 2
** Name: BC-3 Type: Displacement/Rotation
*Boundary
Set-11, 3, 3
** 
** PREDEFINED FIELDS
** 
** Name: Predefined Field-1   Type: Temperature Using Field: AnalyticalField-1
*Temperature
Part-2-1.1, 1.41421
Part-2-1.2, 2.4971
Part-2-1.3, 2.79
Part-2-1.4, 2.39
Part-2-1.5, 1.91541
Part-2-1.6, 1.62406
Part-2-1.7, 1.79766
Part-2-1.8, 1.4
Part-2-1.9, 1.
Part-2-1.10, 1.22475
Part-2-1.11, 1.36603
Part-2-1.12, 1.68494
Part-2-1.13, 1.95566
Part-2-1.14, 2.22638
Part-2-1.15, 2.59
Part-2-1.16, 2.2318
Part-2-1.17, 2.07361
Part-2-1.18, 1.2
Part-2-1.19, 1.40494
Part-2-1.20, 1.69547
** ... 551 like lines cut
** 
** OUTPUT REQUESTS
** 
** 
** FIELD OUTPUT: F-Output-1
** 
*Output, field, variable=PRESELECT
** 
** HISTORY OUTPUT: H-Output-1
** 
*Output, history, variable=PRESELECT
*End Step
