*Heading
** Job name: Job-1 Model name: Model-1
** Generated by: Abaqus/CAE Student Edition 2016
*Preprint, echo=NO, model=NO, history=NO, contact=NO
**
** PARTS
**
*Part, name=Part-2
*Node
      1,  0.707099974,  0.707113564,           0.
      2,  0.707099974,   1.78999996,           0.
      3,           1.,   1.78999996,           0.
      4,           1.,   1.38999999,           0.
      5,   1.20830059,  0.707113564,           0.
      6,   1.38401079,  0.210983485,           0.
      7,   1.30106461,  0.516943812,           0.
      8,   1.39999998,           0.,           0.
      9,           1.,           0.,           0.
     10,   0.95693928,  0.290288121,           0.
     11,   0.88191843,  0.471402019,           0.
     12,  0.707099974,  0.805557787,           0.
     13,  0.707099974,  0.904002011,           0.
     14,  0.707099974,   1.00244617,           0.
     15,  0.707099974,    1.1008904,           0.
     16,  0.707099974,   1.19933462,           0.
     17,  0.707099974,   1.29777884,           0.
     18,  0.707099974,   1.39622307,           0.
     19,  0.707099974,   1.49466729,           0.
     20,  0.707099974,   1.59311152,           0.
** ... 889 like lines cut
*Element, type=C3D8R
  1,  78,  55,  53,  79, 179, 156, 154, 180
  2,  64,   4,  26,  61, 165, 105, 127, 162
  3,  31,  68,  65,  32, 132, 169, 166, 133
  4,  77,  49,  89,  91, 178, 150, 190, 192
  5,  72,  83,  98,  73, 173, 184, 199, 174
  6,  46,  98,  83,  48, 147, 199, 184, 149
  7,  71,  82,  75,  88, 172, 183, 176, 189
  8,  46,  10,  41,  50, 147, 111, 142, 151
  9,  42,  10,  46,  48, 143, 111, 147, 149
 10,  14,  55,  52,  15, 115, 156, 153, 116
 11,  28,  27,  90,  66, 129, 128, 191, 167
 12,  15,  52,  56,  16, 116, 153, 157, 117
 13,  17,  57,  54,  18, 118, 158, 155, 119
 14,  61,  26,  25,  60, 162, 127, 126, 161
 15,  96,  60,  25,  24, 197, 161, 126, 125
 16,   2,  21,  45,  22, 103, 122, 146, 123
 17,  96,  23,  22,  45, 197, 124, 123, 146
 18,  23,  96,  24,   3, 124, 197, 125, 104
 19,  18,  54,  58,  19, 119, 155, 159, 120
 20,  64,  61,  58,  54, 165, 162, 159, 155
** ... 604 like lines cut
*End Part
**  
**
** ASSEMBLY
**
*Assembly, name=Assembly
**  
*Instance, name=Part-2-1, part=Part-2
          0.,           0.,           0.
          0.,           0.,           0.,           1.,           0.,           0.,          90.
*End Instance
**  
*Nset, nset=Set-9, instance=Part-2-1, generate
   1,  101,    1
*Elset, elset=Set-9, instance=Part-2-1, generate
  1,  78,   1
*Nset, nset=Set-10, instance=Part-2-1, generate
 809,  909,    1
*Elset, elset=Set-10, instance=Part-2-1, generate
 547,  624,    1
*Nset, nset=Set-11, instance=Part-2-1
   2,   3,   8,   9,  22,  23,  37,  38,  39, 103, 104, 109, 110, 123, 124, 138
 139, 140, 204, 205, 210, 211, 224, 225, 239, 240, 241, 305, 306, 311, 312, 325
 326, 340, 341, 342, 406, 407, 412, 413, 426, 427, 441, 442, 443, 507, 508, 513
 514, 527, 528, 542, 543, 544, 608, 609, 614, 615, 628, 629, 643, 644, 645, 709
 710, 715, 716, 729, 730, 744, 745, 746, 810, 811, 816, 817, 830, 831, 845, 846
 847,
*Elset, elset=Set-11, instance=Part-2-1
  16,  17,  18,  26,  28,  30,  40,  94,  95,  96, 104, 106, 108, 118, 172, 173
 174, 182, 184, 186, 196, 250, 251, 252, 260, 262, 264, 274, 328, 329, 330, 338
 340, 342, 352, 406, 407, 408, 416, 418, 420, 430, 484, 485, 486, 494, 496, 498
 508, 562, 563, 564, 572, 574, 576, 586
*Nset, nset=Set-12, instance=Part-2-1, generate
   1,  909,    1
*Elset, elset=Set-12, instance=Part-2-1, generate
   1,  624,    1
*Nset, nset=Set-13, instance=Part-2-1, generate
   1,  909,    1
*Elset, elset=Set-13, instance=Part-2-1, generate
   1,  624,    1
*Nset, nset="_T-Datum csys-3", internal
Set-9, 
Set-10, 
Set-11, 
*Transform, nset="_T-Datum csys-3", type=C
          0.,           0.,           0.,           0.,           0.,           1.
*End Assembly
** 
** MATERIALS
** 
*Material, name=Material-1
*Elastic
 2.1e+11, 0.3
*Expansion
 0.00023,
** ----------------------------------------------------------------
** 
** STEP: Step-1
** 
*Step, name=Step-1, nlgeom=NO, perturbation
*Static
** 
** BOUNDARY CONDITIONS
** 
** Name: BC-1 Type: Displacement/Rotation
*Boundary
Set-9, 2, 2
** Name: BC-2 Type: Displacement/Rotation
*Boundary
Set-10, 2, 2
** Name: BC-3 Type: Displacement/Rotation
*Boundary
Set-11, 3, 3
** 
** PREDEFINED FIELDS
** 
** Name: Predefined Field-1   Type: Temperature Using Field: AnalyticalField-1
*Temperature
Part-2-1.1, 1.41421
Part-2-1.2, 2.4971
Part-2-1.3, 2.79
Part-2-1.4, 2.39
Part-2-1.5, 1.91541
Part-2-1.6, 1.59499
Part-2-1.7, 1.81801
Part-2-1.8, 1.4
Part-2-1.9, 1.
Part-2-1.10, 1.24723
Part-2-1.11, 1.35332
Part-2-1.12, 1.51266
Part-2-1.13, 1.6111
Part-2-1.14, 1.70955
Part-2-1.15, 1.80799
Part-2-1.16, 1.90643
Part-2-1.17, 2.00488
Part-2-1.18, 2.10332
Part-2-1.19, 2.20177
Part-2-1.20, 2.30021
** ... 889 like lines cut
** 
** OUTPUT REQUESTS
** 
** 
** FIELD OUTPUT: F-Output-1
** 
*Output, field, variable=PRESELECT
** 
** HISTORY OUTPUT: H-Output-1
** 
*Output, history, variable=PRESELECT
*End Step
